xflr5 v6.47

 Calculated polar for: NACA 4424

 1 1 Reynolds number fixed          Mach number fixed         

 xtrf =   1.000 (top)        1.000 (bottom)
 Mach =   0.200     Re =     3.000 e 6     Ncrit =   9.000

  alpha     CL        CD       CDp       Cm    Top Xtr Bot Xtr   Cpmin    Chinge    XCp    
 ------- -------- --------- --------- -------- ------- ------- -------- --------- ---------
 -24.000  -0.8614   0.15395   0.15187  -0.0641  1.0000  0.0345  -5.9532   0.0000   0.1031
 -23.000  -0.8855   0.13678   0.13455  -0.0752  1.0000  0.0358  -6.0616   0.0000   0.0967
 -22.000  -0.9155   0.11954   0.11712  -0.0853  1.0000  0.0363  -6.1544   0.0000   0.0928
 -21.000  -1.0128   0.09542   0.09269  -0.0975  1.0000  0.0369  -6.5335   0.0000   0.0961
 -20.000  -1.1712   0.06604   0.06284  -0.1112  0.9995  0.0383  -7.1133   0.0000   0.1049
 -19.000  -1.2452   0.04343   0.03981  -0.1257  0.9961  0.0406  -7.2725   0.0000   0.1038
 -18.000  -1.2409   0.03092   0.02706  -0.1332  0.9849  0.0433  -7.0536   0.0000   0.1007
 -17.000  -1.2143   0.02404   0.01996  -0.1323  0.9561  0.0454  -6.7099   0.0000   0.1020
 -16.000  -1.1598   0.01983   0.01549  -0.1300  0.9230  0.0467  -6.2676   0.0000   0.1010
 -15.000  -1.0897   0.01700   0.01244  -0.1270  0.8921  0.0476  -5.8178   0.0000   0.0981
 -14.000  -1.0225   0.01455   0.00979  -0.1222  0.8502  0.0542  -5.4001   0.0000   0.0968
 -13.000  -0.9384   0.01304   0.00816  -0.1179  0.8203  0.0580  -4.9427   0.0000   0.0918
 -12.000  -0.8469   0.01211   0.00707  -0.1136  0.7884  0.0593  -4.4800   0.0000   0.0839
 -11.000  -0.7570   0.01114   0.00599  -0.1088  0.7519  0.0681  -4.0424   0.0000   0.0747
 -10.000  -0.6523   0.01052   0.00524  -0.1064  0.7167  0.0723  -3.5929   0.0000   0.0550
  -9.000  -0.5470   0.00986   0.00451  -0.1041  0.6822  0.0829  -3.1985   0.0000   0.0268
  -8.000  -0.4364   0.00945   0.00400  -0.1026  0.6480  0.0887  -2.8099   0.0000  -0.0204
  -7.000  -0.3273   0.00902   0.00351  -0.1009  0.6124  0.1017  -2.4426   0.0000  -0.0979
  -6.000  -0.2177   0.00871   0.00314  -0.0993  0.5754  0.1167  -2.1187   0.0000  -0.2553
  -5.000  -0.1070   0.00850   0.00285  -0.0980  0.5400  0.1321  -1.8143   0.0000  -0.7456
  -4.000   0.0042   0.00830   0.00264  -0.0967  0.5114  0.1520  -1.5372   0.0000  24.7861
  -3.000   0.1157   0.00817   0.00250  -0.0956  0.4876  0.1730  -1.2869   0.0000   1.1141
  -2.000   0.2285   0.00804   0.00241  -0.0948  0.4704  0.1973  -1.0633   0.0000   0.6750
  -1.000   0.3374   0.00798   0.00240  -0.0933  0.4496  0.2316  -1.1557   0.0000   0.5271
   0.000   0.4472   0.00794   0.00243  -0.0920  0.4381  0.2648  -1.2586   0.0000   0.4513
   1.000   0.5449   0.00795   0.00252  -0.0882  0.4219  0.3075  -1.3588   0.0000   0.4043
   2.000   0.6520   0.00796   0.00269  -0.0866  0.4127  0.3607  -1.4736   0.0000   0.3726
   3.000   0.7570   0.00814   0.00308  -0.0848  0.3943  0.4575  -1.5922   0.0000   0.3499
   4.000   0.8659   0.00829   0.00350  -0.0840  0.3831  0.5673  -1.7215   0.0000   0.3330
   5.000   0.9700   0.00870   0.00410  -0.0823  0.3655  0.6571  -1.8577   0.0000   0.3192
   6.000   1.0689   0.00932   0.00489  -0.0799  0.3448  0.7552  -1.9987   0.0000   0.3074
   7.000   1.1685   0.00991   0.00577  -0.0777  0.3309  0.8726  -2.1511   0.0000   0.2975
   8.000   1.2547   0.01088   0.00692  -0.0729  0.3123  0.9903  -2.3032   0.0000   0.2874
   9.000   1.3454   0.01240   0.00834  -0.0704  0.2899  1.0000  -2.4727   0.0000   0.2798
  10.000   1.4263   0.01424   0.01011  -0.0665  0.2717  1.0000  -2.6484   0.0000   0.2722
  11.000   1.5038   0.01643   0.01227  -0.0626  0.2542  1.0000  -2.8385   0.0000   0.2653
  12.000   1.5721   0.01928   0.01509  -0.0582  0.2352  1.0000  -3.0368   0.0000   0.2586
  13.000   1.6271   0.02324   0.01904  -0.0533  0.2158  1.0000  -3.2359   0.0000   0.2521
  14.000   1.6710   0.02817   0.02394  -0.0482  0.1955  1.0000  -3.4373   0.0000   0.2459
  15.000   1.6967   0.03493   0.03071  -0.0429  0.1760  1.0000  -3.6266   0.0000   0.2398
  16.000   1.7074   0.04328   0.03910  -0.0381  0.1583  1.0000  -3.7943   0.0000   0.2342
  17.000   1.7159   0.05230   0.04821  -0.0344  0.1457  1.0000  -3.9742   0.0000   0.2292
  18.000   1.7022   0.06384   0.05986  -0.0312  0.1312  1.0000  -4.1050   0.0000   0.2247
  19.000   1.6745   0.07714   0.07329  -0.0292  0.1183  1.0000  -4.2132   0.0000   0.2208
  20.000   1.6487   0.09078   0.08703  -0.0286  0.1060  1.0000  -4.3236   0.0000   0.2178
  21.000   1.6226   0.10472   0.10115  -0.0294  0.0971  1.0000  -4.4238   0.0000   0.2156
  22.000   1.5949   0.11936   0.11591  -0.0318  0.0862  1.0000  -4.5111   0.0000   0.2144
  23.000   1.5777   0.13297   0.12961  -0.0354  0.0784  1.0000  -4.6379   0.0000   0.2138
  24.000   1.5680   0.14569   0.14248  -0.0399  0.0712  1.0000  -4.7774   0.0000   0.2137
  25.000   1.5523   0.15965   0.15652  -0.0460  0.0638  1.0000  -4.8866   0.0000   0.2147


