xflr5 v6.47

 Calculated polar for: NACA 64112

 1 1 Reynolds number fixed          Mach number fixed         

 xtrf =   1.000 (top)        1.000 (bottom)
 Mach =   0.200     Re =     3.000 e 6     Ncrit =   9.000

  alpha     CL        CD       CDp       Cm    Top Xtr Bot Xtr   Cpmin    Chinge    XCp    
 ------- -------- --------- --------- -------- ------- ------- -------- --------- ---------
 -15.000  -0.8416   0.12555   0.12439   0.0108  1.0000  0.0013  -8.2850   0.0000   0.2474
 -14.000  -0.9695   0.08541   0.08416  -0.0098  1.0000  0.0014  -10.7954   0.0000   0.2247
 -13.000  -1.0937   0.04293   0.04123  -0.0389  1.0000  0.0015  -12.8031   0.0000   0.2005
 -12.000  -1.1526   0.02917   0.02685  -0.0352  1.0000  0.0014  -12.7686   0.0000   0.2074
 -11.000  -1.1449   0.02213   0.01913  -0.0215  1.0000  0.0013  -11.7126   0.0000   0.2205
 -10.000  -1.0970   0.01701   0.01337  -0.0105  1.0000  0.0012  -10.2018   0.0000   0.2310
  -9.000  -1.0355   0.01294   0.00869  -0.0002  1.0000  0.0011  -8.6657   0.0000   0.2417
  -8.000  -0.9449   0.01022   0.00539   0.0052  0.9991  0.0019  -7.0349   0.0000   0.2486
  -7.000  -0.8143   0.00895   0.00410   0.0021  0.9960  0.0055  -5.0070   0.0000   0.2467
  -6.000  -0.6914   0.00770   0.00297   0.0004  0.9904  0.0233  -3.6320   0.0000   0.2457
  -5.000  -0.5587   0.00695   0.00229  -0.0033  0.9848  0.0342  -2.4215   0.0000   0.2400
  -4.000  -0.4342   0.00628   0.00171  -0.0052  0.9715  0.0508  -1.6800   0.0000   0.2345
  -3.000  -0.3008   0.00539   0.00113  -0.0095  0.9329  0.1342  -1.1730   0.0000   0.2154
  -2.000  -0.1980   0.00486   0.00074  -0.0067  0.8261  0.2594  -0.8127   0.0000   0.2131
  -1.000  -0.0996   0.00455   0.00052  -0.0032  0.6913  0.3950  -0.5288   0.0000   0.2154
   0.000  -0.0000   0.00428   0.00046   0.0000  0.5682  0.5683  -0.3195   0.0000   0.9230
   1.000   0.0996   0.00455   0.00052   0.0032  0.3949  0.6913  -0.5288   0.0000   0.2154
   2.000   0.1980   0.00486   0.00074   0.0067  0.2595  0.8262  -0.8127   0.0000   0.2131
   3.000   0.3008   0.00539   0.00113   0.0095  0.1342  0.9329  -1.1730   0.0000   0.2154
   4.000   0.4342   0.00628   0.00171   0.0052  0.0508  0.9715  -1.6800   0.0000   0.2345
   5.000   0.5587   0.00694   0.00229   0.0033  0.0342  0.9848  -2.4216   0.0000   0.2400
   6.000   0.6914   0.00769   0.00297  -0.0004  0.0233  0.9905  -3.6322   0.0000   0.2458
   7.000   0.8144   0.00895   0.00410  -0.0021  0.0055  0.9960  -5.0074   0.0000   0.2468
   8.000   0.9450   0.01022   0.00539  -0.0052  0.0019  0.9991  -7.0355   0.0000   0.2486
   9.000   1.0354   0.01294   0.00869   0.0002  0.0011  1.0000  -8.6654   0.0000   0.2417
  10.000   1.0970   0.01701   0.01337   0.0105  0.0012  1.0000  -10.2018   0.0000   0.2310
  11.000   1.1450   0.02213   0.01913   0.0215  0.0013  1.0000  -11.7138   0.0000   0.2205
  12.000   1.1531   0.02919   0.02687   0.0351  0.0014  1.0000  -12.7734   0.0000   0.2075
  13.000   1.0948   0.04304   0.04135   0.0386  0.0015  1.0000  -12.8092   0.0000   0.2008
  14.000   0.9701   0.08597   0.08473   0.0090  0.0014  1.0000  -10.7670   0.0000   0.2256
  15.000   0.8438   0.12613   0.12497  -0.0118  0.0013  1.0000  -8.2687   0.0000   0.2485
  16.000   0.7765   0.16108   0.16002  -0.0279  0.0014  1.0000  -6.2650   0.0000   0.2706
  17.000   0.7146   0.20485   0.20378  -0.0434  0.0042  1.0000  -1.9569   0.0000   0.2973
  18.000   0.7384   0.22065   0.21958  -0.0500  0.0041  1.0000  -1.9020   0.0000   0.3032
  19.000   0.7661   0.23582   0.23475  -0.0563  0.0034  1.0000  -1.9815   0.0000   0.3079
  20.000   0.7897   0.25226   0.25118  -0.0627  0.0022  1.0000  -2.0350   0.0000   0.3126
  21.000   0.8118   0.26831   0.26724  -0.0690  0.0017  1.0000  -2.1974   0.0000   0.3167
  22.000   0.8325   0.28415   0.28309  -0.0750  0.0014  1.0000  -2.4371   0.0000   0.3204


