xflr5 v6.47

 Calculated polar for: TsAGI R-3a (12%)

 1 1 Reynolds number fixed          Mach number fixed         

 xtrf =   1.000 (top)        1.000 (bottom)
 Mach =   0.200     Re =     3.000 e 6     Ncrit =   9.000

  alpha     CL        CD       CDp       Cm    Top Xtr Bot Xtr   Cpmin    Chinge    XCp    
 ------- -------- --------- --------- -------- ------- ------- -------- --------- ---------
 -18.000  -0.7296   0.22320   0.22216   0.0774  1.0045  0.0065  -1.9792   0.0000   0.3409
 -17.000  -0.6953   0.20688   0.20584   0.0678  1.0045  0.0072  -2.3718   0.0000   0.3330
 -16.000  -0.6564   0.19577   0.19475   0.0610  1.0045  0.0074  -2.1420   0.0000   0.3296
 -15.000  -0.6189   0.18334   0.18233   0.0538  1.0045  0.0079  -2.0272   0.0000   0.3247
 -11.000  -0.9524   0.02621   0.02389  -0.0407  1.0045  0.0088  -11.4549   0.0000   0.1965
 -10.000  -0.8715   0.01953   0.01648  -0.0379  0.9356  0.0090  -10.3348   0.0000   0.1965
  -9.000  -0.7766   0.01634   0.01203  -0.0341  0.6568  0.0093  -9.1215   0.0000   0.1970
  -8.000  -0.6685   0.01399   0.00883  -0.0319  0.4778  0.0097  -7.9246   0.0000   0.1938
  -7.000  -0.5551   0.01231   0.00672  -0.0301  0.4205  0.0100  -6.7280   0.0000   0.1877
  -6.000  -0.4408   0.01058   0.00475  -0.0285  0.4041  0.0106  -5.6140   0.0000   0.1775
  -5.000  -0.3232   0.00962   0.00365  -0.0274  0.3931  0.0113  -4.5290   0.0000   0.1573
  -4.000  -0.2052   0.00878   0.00270  -0.0264  0.3825  0.0122  -3.5467   0.0000   0.1121
  -3.000  -0.0862   0.00823   0.00208  -0.0258  0.3712  0.0134  -2.6747   0.0000  -0.0628
  -2.000   0.0329   0.00775   0.00156  -0.0253  0.3574  0.0160  -1.9236   0.0000   1.0357
  -1.000   0.1521   0.00748   0.00131  -0.0250  0.3340  0.0365  -1.2524   0.0000   0.4136
   0.000   0.2696   0.00751   0.00127  -0.0248  0.2606  0.1036  -1.0167   0.0000   0.3389
   1.000   0.3861   0.00694   0.00133  -0.0247  0.2377  0.3761  -1.1612   0.0000   0.3097
   2.000   0.4998   0.00616   0.00153  -0.0242  0.2221  0.7845  -1.3093   0.0000   0.2930
   3.000   0.6160   0.00601   0.00180  -0.0233  0.2122  0.9839  -1.4988   0.0000   0.2815
   4.000   0.7481   0.00636   0.00207  -0.0263  0.2057  0.9955  -1.7470   0.0000   0.2777
   5.000   0.8625   0.00672   0.00238  -0.0254  0.1995  0.9955  -1.9947   0.0000   0.2710
   6.000   0.9782   0.00714   0.00276  -0.0249  0.1920  0.9955  -2.2591   0.0000   0.2658
   7.000   1.0940   0.00761   0.00320  -0.0245  0.1817  0.9955  -2.5420   0.0000   0.2614
   8.000   1.2079   0.00833   0.00381  -0.0240  0.1578  0.9955  -2.8365   0.0000   0.2574
   9.000   1.3172   0.00955   0.00486  -0.0229  0.1253  0.9955  -3.1408   0.0000   0.2534
  10.000   1.4265   0.01063   0.00590  -0.0218  0.1099  0.9955  -3.4648   0.0000   0.2496
  11.000   1.5327   0.01187   0.00712  -0.0202  0.0952  0.9955  -3.9154   0.0000   0.2458
  12.000   1.6128   0.01525   0.01020  -0.0160  0.0416  0.9955  -4.6102   0.0000   0.2406
  13.000   1.6631   0.01996   0.01487  -0.0088  0.0092  0.9955  -5.2289   0.0000   0.2341
  14.000   1.6937   0.02454   0.01968  -0.0013  0.0082  0.9955  -5.8130   0.0000   0.2275
  15.000   1.6891   0.03737   0.03290  -0.0052  0.0076  0.9955  -6.2043   0.0000   0.2273
  16.000   1.6053   0.06123   0.05722  -0.0141  0.0075  0.9955  -6.1420   0.0000   0.2306
  17.000   1.4984   0.08774   0.08416  -0.0232  0.0075  0.9955  -5.9143   0.0000   0.2351
  18.000   1.4159   0.11370   0.11048  -0.0337  0.0074  0.9955  -5.7557   0.0000   0.2413
  19.000   1.3631   0.13661   0.13367  -0.0448  0.0073  0.9955  -5.7196   0.0000   0.2484
  20.000   1.3354   0.15640   0.15369  -0.0561  0.0071  0.9955  -5.8021   0.0000   0.2554
  21.000   1.3176   0.17515   0.17265  -0.0682  0.0069  0.9955  -5.9054   0.0000   0.2629
  22.000   1.3064   0.19324   0.19091  -0.0810  0.0066  0.9955  -6.0143   0.0000   0.2710
  23.000   1.2970   0.21154   0.20938  -0.0949  0.0064  0.9955  -6.0878   0.0000   0.2799
  24.000   1.3049   0.22611   0.22409  -0.1066  0.0062  0.9955  -6.3210   0.0000   0.2859
  25.000   1.3168   0.23971   0.23780  -0.1181  0.0059  0.9955  -6.5855   0.0000   0.2912


