xflr5 v6.47

 Calculated polar for: NACA 4417

 1 1 Reynolds number fixed          Mach number fixed         

 xtrf =   1.000 (top)        1.000 (bottom)
 Mach =   0.200     Re =     9.000 e 6     Ncrit =   9.000

  alpha     CL        CD       CDp       Cm    Top Xtr Bot Xtr   Cpmin    Chinge    XCp    
 ------- -------- --------- --------- -------- ------- ------- -------- --------- ---------
 -25.000  -0.7914   0.22217   0.22130   0.0037  1.0000  0.0119  -6.6432   0.0000   0.2006
 -24.000  -0.7656   0.20999   0.20909  -0.0057  1.0000  0.0120  -6.4594   0.0000   0.1906
 -23.000  -0.7438   0.19686   0.19591  -0.0152  1.0000  0.0120  -6.3207   0.0000   0.1797
 -22.000  -0.8257   0.16389   0.16267  -0.0362  1.0000  0.0121  -7.4727   0.0000   0.1590
 -21.000  -0.9982   0.12075   0.11913  -0.0642  1.0000  0.0121  -9.2239   0.0000   0.1429
 -20.000  -1.5303   0.03910   0.03639  -0.1209  1.0000  0.0121  -13.7282   0.0000   0.1364
 -19.000  -1.5490   0.02511   0.02206  -0.1288  1.0000  0.0121  -13.4110   0.0000   0.1355
 -18.000  -1.4952   0.01948   0.01620  -0.1292  0.9931  0.0121  -12.5104   0.0000   0.1347
 -17.000  -1.4451   0.01666   0.01316  -0.1207  0.9620  0.0125  -11.6199   0.0000   0.1398
 -16.000  -1.3634   0.01432   0.01067  -0.1152  0.9383  0.0160  -10.6920   0.0000   0.1406
 -15.000  -1.2638   0.01265   0.00889  -0.1116  0.9136  0.0180  -9.6846   0.0000   0.1384
 -14.000  -1.1549   0.01152   0.00759  -0.1091  0.8803  0.0185  -8.6786   0.0000   0.1336
 -13.000  -1.0418   0.01059   0.00651  -0.1072  0.8466  0.0187  -7.7061   0.0000   0.1263
 -12.000  -0.9262   0.00976   0.00557  -0.1058  0.8184  0.0188  -6.7801   0.0000   0.1159
 -11.000  -0.8119   0.00886   0.00457  -0.1045  0.7803  0.0241  -5.9253   0.0000   0.1021
 -10.000  -0.6944   0.00821   0.00383  -0.1037  0.7440  0.0266  -5.1023   0.0000   0.0818
  -9.000  -0.5748   0.00776   0.00327  -0.1034  0.7106  0.0269  -4.3262   0.0000   0.0511
  -8.000  -0.4569   0.00724   0.00269  -0.1030  0.6693  0.0347  -3.6884   0.0000   0.0047
  -7.000  -0.3373   0.00696   0.00229  -0.1030  0.6240  0.0376  -3.0881   0.0000  -0.0773
  -6.000  -0.2180   0.00664   0.00192  -0.1030  0.5865  0.0467  -2.5326   0.0000  -0.2501
  -5.000  -0.0992   0.00646   0.00166  -0.1032  0.5384  0.0571  -2.0418   0.0000  -0.8375
  -4.000   0.0207   0.00628   0.00145  -0.1036  0.5061  0.0710  -1.6215   0.0000   5.4239
  -3.000   0.1407   0.00615   0.00131  -0.1041  0.4773  0.0865  -1.2461   0.0000   1.0064
  -2.000   0.2604   0.00606   0.00122  -0.1047  0.4504  0.1124  -0.9304   0.0000   0.6565
  -1.000   0.3806   0.00597   0.00118  -0.1054  0.4360  0.1431  -0.9015   0.0000   0.5269
   0.000   0.5012   0.00587   0.00118  -0.1063  0.4208  0.1833  -1.0010   0.0000   0.4595
   1.000   0.6199   0.00589   0.00126  -0.1068  0.3995  0.2329  -1.1074   0.0000   0.4180
   2.000   0.7389   0.00591   0.00138  -0.1075  0.3836  0.2896  -1.2234   0.0000   0.3897
   3.000   0.8554   0.00601   0.00158  -0.1078  0.3581  0.3770  -1.3496   0.0000   0.3688
   4.000   0.9684   0.00611   0.00190  -0.1075  0.3266  0.5380  -1.4871   0.0000   0.3525
   5.000   1.0796   0.00637   0.00231  -0.1068  0.2894  0.6769  -1.6422   0.0000   0.3391
   6.000   1.1852   0.00686   0.00291  -0.1050  0.2473  0.8288  -1.8235   0.0000   0.3275
   7.000   1.2805   0.00744   0.00362  -0.1009  0.2076  0.9858  -2.0499   0.0000   0.3163
   8.000   1.3788   0.00854   0.00449  -0.0980  0.1625  1.0000  -2.3511   0.0000   0.3070
   9.000   1.4563   0.00988   0.00561  -0.0910  0.1207  1.0000  -2.6790   0.0000   0.2969
  10.000   1.5340   0.01140   0.00698  -0.0846  0.0941  1.0000  -3.0561   0.0000   0.2879
  11.000   1.6072   0.01324   0.00871  -0.0782  0.0704  1.0000  -3.4662   0.0000   0.2796
  12.000   1.6734   0.01556   0.01098  -0.0714  0.0558  1.0000  -3.9081   0.0000   0.2718
  13.000   1.7353   0.01846   0.01385  -0.0650  0.0445  1.0000  -4.3829   0.0000   0.2646
  14.000   1.7860   0.02230   0.01770  -0.0585  0.0358  1.0000  -4.8459   0.0000   0.2577
  15.000   1.8251   0.02755   0.02299  -0.0523  0.0297  1.0000  -5.2916   0.0000   0.2514
  16.000   1.8636   0.03345   0.02900  -0.0476  0.0265  1.0000  -5.8069   0.0000   0.2459
  17.000   1.8816   0.04175   0.03741  -0.0433  0.0234  1.0000  -6.2601   0.0000   0.2408
  18.000   1.8845   0.05192   0.04772  -0.0399  0.0193  1.0000  -6.6600   0.0000   0.2364
  19.000   1.8917   0.06220   0.05817  -0.0379  0.0185  1.0000  -7.0851   0.0000   0.2326
  20.000   1.8754   0.07519   0.07136  -0.0370  0.0176  1.0000  -7.4085   0.0000   0.2295
  21.000   1.8385   0.09115   0.08751  -0.0378  0.0157  1.0000  -7.6263   0.0000   0.2274
  22.000   1.7967   0.10794   0.10452  -0.0404  0.0134  1.0000  -7.8004   0.0000   0.2263
  23.000   1.7769   0.12253   0.11929  -0.0440  0.0121  1.0000  -8.0671   0.0000   0.2256
  24.000   1.7598   0.13694   0.13390  -0.0489  0.0120  1.0000  -8.3489   0.0000   0.2254
  25.000   1.7260   0.15378   0.15097  -0.0564  0.0119  1.0000  -8.5477   0.0000   0.2271


